http transferring http://www.centralsemi.com/docs/csm/2N5088.LIB to C:\Users\Michael Marsh\OneDrive\Documents\LTspiceXVII\2N5088.LIB
Circuit: * C:\Users\Michael Marsh\OneDrive\Documents\LTspiceXVII\Draft1.asc

Direct Newton iteration for .op point succeeded.

Date: Thu Sep 23 15:23:13 2021
Total elapsed time: 0.600 seconds.

tnom = 27
temp = 27
method = modified trap
totiter = 2092
traniter = 2084
tranpoints = 1042
accept = 1042
rejected = 0
matrix size = 10
fillins = 0
solver = Normal
Matrix Compiler1: 560 bytes object code size  0.4/0.2/[0.2]
Matrix Compiler2: 762 bytes object code size  0.2/0.3/[0.2]

