http transferring http://www.centralsemi.com/docs/csm/2N5088.LIB to C:\Users\Michael Marsh\OneDrive\Documents\LTspiceXVII\LPB1_Spice_Model\2N5088.LIB
Circuit: * C:\Users\Michael Marsh\OneDrive\Documents\LTspiceXVII\LPB1_Spice_Model\LBP1.asc

Direct Newton iteration for .op point succeeded.

Date: Sat Oct 09 14:12:28 2021
Total elapsed time: 11.745 seconds.

tnom = 27
temp = 27
method = modified trap
totiter = 3875992
traniter = 3875984
tranpoints = 1937993
accept = 1937993
rejected = 0
matrix size = 10
fillins = 0
solver = Normal
Matrix Compiler1: 524 bytes object code size  0.1/0.1/[0.1]
Matrix Compiler2: 774 bytes object code size  0.1/0.1/[0.1]

