Circuit: * C:\Users\Michael Marsh\OneDrive\Documents\LTspiceXVII\LPB1_Spice_Model\Reverse_Engineered_LPB1_Final.asc

WARNING: Less than two connections to node WAV_OUT.  This node is used by B2.
Direct Newton iteration for .op point succeeded.

Date: Sat Oct 16 19:34:58 2021
Total elapsed time: 5.082 seconds.

tnom = 27
temp = 27
method = modified trap
totiter = 1389059
traniter = 1389051
tranpoints = 694439
accept = 663781
rejected = 30658
matrix size = 17
fillins = 6
solver = Normal
Matrix Compiler1: 1.16 KB object code size  0.2/0.1/[0.1]
Matrix Compiler2: 1.26 KB object code size  0.1/0.2/[0.1]

